&jules_soil
dzsoil_io=0.1000,0.2500,0.6500,2.0000,
l_bedrock=.false.,
l_dpsids_dsdz=.false.,
l_soil_sat_down=.true.,
l_vg_soil=.true.,
sm_levels=4,
soilhc_method=2,
/
